<?xml version="1.0" encoding="UTF-8"?>

<!-- generated on 2026-02-13T03:17:14.041248+05:30 by Eclipse SUMO netconvert 1.25.0
<netconvertConfiguration xmlns:xsi="http://www.w3.org/2001/XMLSchema-instance" xsi:noNamespaceSchemaLocation="http://sumo.dlr.de/xsd/netconvertConfiguration.xsd">

    <input>
        <node-files value="intersection.nod.xml"/>
        <edge-files value="intersection.edg.xml"/>
        <connection-files value="intersection.con.xml"/>
        <tllogic-files value="intersection.tll.xml"/>
    </input>

    <output>
        <output-file value="intersection.net.xml"/>
    </output>

    <junctions>
        <no-turnarounds value="true"/>
    </junctions>

</netconvertConfiguration>
-->

<net version="1.20" junctionCornerDetail="5" limitTurnSpeed="5.50" xmlns:xsi="http://www.w3.org/2001/XMLSchema-instance" xsi:noNamespaceSchemaLocation="http://sumo.dlr.de/xsd/net_file.xsd">

    <location netOffset="200.00,200.00" convBoundary="0.00,0.00,400.00,400.00" origBoundary="-200.00,-200.00,200.00,200.00" projParameter="!"/>

    <edge id=":center_0" function="internal">
        <lane id=":center_0_0" index="0" speed="6.51" length="9.03" shape="198.40,207.20 198.05,204.75 197.00,203.00 195.25,201.95 192.80,201.60"/>
    </edge>
    <edge id=":center_1" function="internal">
        <lane id=":center_1_0" index="0" speed="13.89" length="14.40" shape="198.40,207.20 198.40,192.80"/>
    </edge>
    <edge id=":center_2" function="internal">
        <lane id=":center_2_0" index="0" speed="8.00" length="14.19" shape="198.40,207.20 198.95,203.35 200.60,200.60 203.35,198.95 207.20,198.40"/>
    </edge>
    <edge id=":center_3" function="internal">
        <lane id=":center_3_0" index="0" speed="6.51" length="9.03" shape="207.20,201.60 204.75,201.95 203.00,203.00 201.95,204.75 201.60,207.20"/>
    </edge>
    <edge id=":center_4" function="internal">
        <lane id=":center_4_0" index="0" speed="13.89" length="14.40" shape="207.20,201.60 192.80,201.60"/>
    </edge>
    <edge id=":center_5" function="internal">
        <lane id=":center_5_0" index="0" speed="8.00" length="14.19" shape="207.20,201.60 203.35,201.05 200.60,199.40 198.95,196.65 198.40,192.80"/>
    </edge>
    <edge id=":center_6" function="internal">
        <lane id=":center_6_0" index="0" speed="6.51" length="9.03" shape="201.60,192.80 201.95,195.25 203.00,197.00 204.75,198.05 207.20,198.40"/>
    </edge>
    <edge id=":center_7" function="internal">
        <lane id=":center_7_0" index="0" speed="13.89" length="14.40" shape="201.60,192.80 201.60,207.20"/>
    </edge>
    <edge id=":center_8" function="internal">
        <lane id=":center_8_0" index="0" speed="8.00" length="14.19" shape="201.60,192.80 201.05,196.65 199.40,199.40 196.65,201.05 192.80,201.60"/>
    </edge>
    <edge id=":center_9" function="internal">
        <lane id=":center_9_0" index="0" speed="6.51" length="9.03" shape="192.80,198.40 195.25,198.05 197.00,197.00 198.05,195.25 198.40,192.80"/>
    </edge>
    <edge id=":center_10" function="internal">
        <lane id=":center_10_0" index="0" speed="13.89" length="14.40" shape="192.80,198.40 207.20,198.40"/>
    </edge>
    <edge id=":center_11" function="internal">
        <lane id=":center_11_0" index="0" speed="8.00" length="14.19" shape="192.80,198.40 196.65,198.95 199.40,200.60 201.05,203.35 201.60,207.20"/>
    </edge>

    <edge id="east_in" from="east" to="center" priority="-1">
        <lane id="east_in_0" index="0" speed="13.89" length="192.80" shape="400.00,201.60 207.20,201.60"/>
    </edge>
    <edge id="east_out" from="center" to="east" priority="-1">
        <lane id="east_out_0" index="0" speed="13.89" length="192.80" shape="207.20,198.40 400.00,198.40"/>
    </edge>
    <edge id="north_in" from="north" to="center" priority="-1">
        <lane id="north_in_0" index="0" speed="13.89" length="192.80" shape="198.40,400.00 198.40,207.20"/>
    </edge>
    <edge id="north_out" from="center" to="north" priority="-1">
        <lane id="north_out_0" index="0" speed="13.89" length="192.80" shape="201.60,207.20 201.60,400.00"/>
    </edge>
    <edge id="south_in" from="south" to="center" priority="-1">
        <lane id="south_in_0" index="0" speed="13.89" length="192.80" shape="201.60,0.00 201.60,192.80"/>
    </edge>
    <edge id="south_out" from="center" to="south" priority="-1">
        <lane id="south_out_0" index="0" speed="13.89" length="192.80" shape="198.40,192.80 198.40,0.00"/>
    </edge>
    <edge id="west_in" from="west" to="center" priority="-1">
        <lane id="west_in_0" index="0" speed="13.89" length="192.80" shape="0.00,198.40 192.80,198.40"/>
    </edge>
    <edge id="west_out" from="center" to="west" priority="-1">
        <lane id="west_out_0" index="0" speed="13.89" length="192.80" shape="192.80,201.60 0.00,201.60"/>
    </edge>

    <tlLogic id="center" type="static" programID="0" offset="0">
        <phase duration="30" state="GGGGGGrrrrrr" name="NS_green"/>
        <phase duration="3"  state="yyyyyyrrrrrr" name="NS_yellow"/>
        <phase duration="30" state="rrrrrrGGGGGG" name="EW_green"/>
        <phase duration="3"  state="rrrrrryyyyyy" name="EW_yellow"/>
    </tlLogic>

    <junction id="center" type="traffic_light" x="200.00" y="200.00" incLanes="north_in_0 east_in_0 south_in_0 west_in_0" intLanes=":center_0_0 :center_1_0 :center_2_0 :center_3_0 :center_4_0 :center_5_0 :center_6_0 :center_7_0 :center_8_0 :center_9_0 :center_10_0 :center_11_0" shape="196.80,207.20 203.20,207.20 203.64,204.98 204.20,204.20 204.98,203.64 205.98,203.31 207.20,203.20 207.20,196.80 204.98,196.36 204.20,195.80 203.64,195.02 203.31,194.02 203.20,192.80 196.80,192.80 196.36,195.02 195.80,195.80 195.02,196.36 194.02,196.69 192.80,196.80 192.80,203.20 195.02,203.64 195.80,204.20 196.36,204.98 196.69,205.98">
        <request index="0"  response="000000000000" foes="000100010000" cont="0"/>
        <request index="1"  response="000000000000" foes="111100110000" cont="0"/>
        <request index="2"  response="000111000000" foes="110111110000" cont="0"/>
        <request index="3"  response="000010000000" foes="100010000000" cont="0"/>
        <request index="4"  response="000110000111" foes="100110000111" cont="0"/>
        <request index="5"  response="111110000110" foes="111110000110" cont="0"/>
        <request index="6"  response="000000000000" foes="010000000100" cont="0"/>
        <request index="7"  response="000000000000" foes="110000111100" cont="0"/>
        <request index="8"  response="000000000011" foes="110000110111" cont="0"/>
        <request index="9"  response="000000000010" foes="000000100010" cont="0"/>
        <request index="10" response="000111000110" foes="000111100110" cont="0"/>
        <request index="11" response="000110011110" foes="000110111110" cont="0"/>
    </junction>
    <junction id="east" type="dead_end" x="400.00" y="200.00" incLanes="east_out_0" intLanes="" shape="400.00,200.00 400.00,196.80 400.00,200.00"/>
    <junction id="north" type="dead_end" x="200.00" y="400.00" incLanes="north_out_0" intLanes="" shape="200.00,400.00 203.20,400.00 200.00,400.00"/>
    <junction id="south" type="dead_end" x="200.00" y="0.00" incLanes="south_out_0" intLanes="" shape="200.00,0.00 196.80,0.00 200.00,0.00"/>
    <junction id="west" type="dead_end" x="0.00" y="200.00" incLanes="west_out_0" intLanes="" shape="0.00,200.00 0.00,203.20 0.00,200.00"/>

    <connection from="east_in" to="north_out" fromLane="0" toLane="0" via=":center_3_0" tl="center" linkIndex="3" dir="r" state="o"/>
    <connection from="east_in" to="west_out" fromLane="0" toLane="0" via=":center_4_0" tl="center" linkIndex="4" dir="s" state="o"/>
    <connection from="east_in" to="south_out" fromLane="0" toLane="0" via=":center_5_0" tl="center" linkIndex="5" dir="l" state="o"/>
    <connection from="north_in" to="west_out" fromLane="0" toLane="0" via=":center_0_0" tl="center" linkIndex="0" dir="r" state="O"/>
    <connection from="north_in" to="south_out" fromLane="0" toLane="0" via=":center_1_0" tl="center" linkIndex="1" dir="s" state="O"/>
    <connection from="north_in" to="east_out" fromLane="0" toLane="0" via=":center_2_0" tl="center" linkIndex="2" dir="l" state="o"/>
    <connection from="south_in" to="east_out" fromLane="0" toLane="0" via=":center_6_0" tl="center" linkIndex="6" dir="r" state="O"/>
    <connection from="south_in" to="north_out" fromLane="0" toLane="0" via=":center_7_0" tl="center" linkIndex="7" dir="s" state="O"/>
    <connection from="south_in" to="west_out" fromLane="0" toLane="0" via=":center_8_0" tl="center" linkIndex="8" dir="l" state="o"/>
    <connection from="west_in" to="south_out" fromLane="0" toLane="0" via=":center_9_0" tl="center" linkIndex="9" dir="r" state="o"/>
    <connection from="west_in" to="east_out" fromLane="0" toLane="0" via=":center_10_0" tl="center" linkIndex="10" dir="s" state="o"/>
    <connection from="west_in" to="north_out" fromLane="0" toLane="0" via=":center_11_0" tl="center" linkIndex="11" dir="l" state="o"/>

    <connection from=":center_0" to="west_out" fromLane="0" toLane="0" dir="r" state="M"/>
    <connection from=":center_1" to="south_out" fromLane="0" toLane="0" dir="s" state="M"/>
    <connection from=":center_2" to="east_out" fromLane="0" toLane="0" dir="l" state="M"/>
    <connection from=":center_3" to="north_out" fromLane="0" toLane="0" dir="r" state="M"/>
    <connection from=":center_4" to="west_out" fromLane="0" toLane="0" dir="s" state="M"/>
    <connection from=":center_5" to="south_out" fromLane="0" toLane="0" dir="l" state="M"/>
    <connection from=":center_6" to="east_out" fromLane="0" toLane="0" dir="r" state="M"/>
    <connection from=":center_7" to="north_out" fromLane="0" toLane="0" dir="s" state="M"/>
    <connection from=":center_8" to="west_out" fromLane="0" toLane="0" dir="l" state="M"/>
    <connection from=":center_9" to="south_out" fromLane="0" toLane="0" dir="r" state="M"/>
    <connection from=":center_10" to="east_out" fromLane="0" toLane="0" dir="s" state="M"/>
    <connection from=":center_11" to="north_out" fromLane="0" toLane="0" dir="l" state="M"/>

</net>
