<?xml version="1.0" encoding="UTF-8"?>
<nodes>
    <node id="center" x="0.00"    y="0.00"    type="traffic_light"/>
    <node id="north"  x="0.00"    y="200.00"  type="priority"/>
    <node id="south"  x="0.00"    y="-200.00" type="priority"/>
    <node id="east"   x="200.00"  y="0.00"    type="priority"/>
    <node id="west"   x="-200.00" y="0.00"    type="priority"/>
</nodes>
