<?xml version="1.0" encoding="UTF-8"?>
<edges>
    <!-- North arm -->
    <edge id="north_in"  from="north"  to="center" numLanes="1" speed="13.89"/>
    <edge id="north_out" from="center" to="north"  numLanes="1" speed="13.89"/>
    <!-- South arm -->
    <edge id="south_in"  from="south"  to="center" numLanes="1" speed="13.89"/>
    <edge id="south_out" from="center" to="south"  numLanes="1" speed="13.89"/>
    <!-- East arm -->
    <edge id="east_in"   from="east"   to="center" numLanes="1" speed="13.89"/>
    <edge id="east_out"  from="center" to="east"   numLanes="1" speed="13.89"/>
    <!-- West arm -->
    <edge id="west_in"   from="west"   to="center" numLanes="1" speed="13.89"/>
    <edge id="west_out"  from="center" to="west"   numLanes="1" speed="13.89"/>
</edges>
